*Heading
** Job name: Job-4 Model name: Model-4
** Generated by: Abaqus/CAE 2020
*Preprint, echo=NO, model=NO, history=NO, contact=NO
**
** PARTS
**
*Part, name=Part-1
*Node
      1,          10.,           1.
      2,         9.75,           1.
      3,          9.5,           1.
      4,         9.25,           1.
      5,           9.,           1.
      6,         8.75,           1.
      7,          8.5,           1.
      8,         8.25,           1.
      9,           8.,           1.
     10,         7.75,           1.
     11,          7.5,           1.
     12,         7.25,           1.
     13,           7.,           1.
     14,         6.75,           1.
     15,          6.5,           1.
     16,         6.25,           1.
     17,           6.,           1.
     18,         5.75,           1.
     19,          5.5,           1.
     20,         5.25,           1.
** ... 349 like lines cut
*Element, type=CPS3
  1,   1,   2,  43
  2,  43,  42,   1
  3,   2,   3,  44
  4,  44,  43,   2
  5,   3,   4,  45
  6,  45,  44,   3
  7,   4,   5,  46
  8,  46,  45,   4
  9,   5,   6,  47
 10,  47,  46,   5
 11,   6,   7,  48
 12,  48,  47,   6
 13,   7,   8,  49
 14,  49,  48,   7
 15,   8,   9,  50
 16,  50,  49,   8
 17,   9,  10,  51
 18,  51,  50,   9
 19,  10,  11,  52
 20,  52,  51,  10
** ... 620 like lines cut
*Nset, nset=Set-1, generate
   1,  369,    1
*Elset, elset=Set-1, generate
   1,  640,    1
** Section: Section-1
*Solid Section, elset=Set-1, material=Material-1
1.,
*End Part
**  
**
** ASSEMBLY
**
*Assembly, name=Assembly
**  
*Instance, name=Part-1-1, part=Part-1
*End Instance
**  
*Nset, nset=Set-1, instance=Part-1-1, generate
  41,  369,   41
*Elset, elset=Set-1, instance=Part-1-1, generate
  79,  639,   80
*Nset, nset=Set-2, instance=Part-1-1
 1,
*Nset, nset=Set-3, instance=Part-1-1
 329,
*End Assembly
** 
** MATERIALS
** 
*Material, name=Material-1
*Elastic
10000.,0.
** 
** BOUNDARY CONDITIONS
** 
** Name: BC-1 Type: Symmetry/Antisymmetry/Encastre
*Boundary
Set-1, ENCASTRE
** ----------------------------------------------------------------
** 
** STEP: Step-1
** 
*Step, name=Step-1, nlgeom=NO
*Static
1., 1., 1e-05, 1.
** 
** LOADS
** 
** Name: Load-1   Type: Concentrated force
*Cload
Set-2, 1, -1.
** Name: Load-2   Type: Concentrated force
*Cload
Set-3, 1, 1.
** 
** OUTPUT REQUESTS
** 
*Restart, write, frequency=0
** 
** FIELD OUTPUT: F-Output-1
** 
*Output, field, variable=PRESELECT
** 
** HISTORY OUTPUT: H-Output-1
** 
*Output, history, variable=PRESELECT
*End Step
