*Heading
** Job name: Job-3 Model name: Model-3
** Generated by: Abaqus/CAE 2020
*Preprint, echo=NO, model=NO, history=NO, contact=NO
**
** PARTS
**
*Part, name=Part-1
*Node
      1,          10.,           1.
      2,          9.5,           1.
      3,           9.,           1.
      4,          8.5,           1.
      5,           8.,           1.
      6,          7.5,           1.
      7,           7.,           1.
      8,          6.5,           1.
      9,           6.,           1.
     10,          5.5,           1.
     11,           5.,           1.
     12,          4.5,           1.
     13,           4.,           1.
     14,          3.5,           1.
     15,           3.,           1.
     16,          2.5,           1.
     17,           2.,           1.
     18,          1.5,           1.
     19,           1.,           1.
     20,          0.5,           1.
** ... 85 like lines cut
*Element, type=CPS3
  1,   1,   2,  23
  2,  23,  22,   1
  3,   2,   3,  24
  4,  24,  23,   2
  5,   3,   4,  25
  6,  25,  24,   3
  7,   4,   5,  26
  8,  26,  25,   4
  9,   5,   6,  27
 10,  27,  26,   5
 11,   6,   7,  28
 12,  28,  27,   6
 13,   7,   8,  29
 14,  29,  28,   7
 15,   8,   9,  30
 16,  30,  29,   8
 17,   9,  10,  31
 18,  31,  30,   9
 19,  10,  11,  32
 20,  32,  31,  10
** ... 140 like lines cut
*Nset, nset=Set-1, generate
   1,  105,    1
*Elset, elset=Set-1, generate
   1,  160,    1
** Section: Section-1
*Solid Section, elset=Set-1, material=Material-1
1.,
*End Part
**  
**
** ASSEMBLY
**
*Assembly, name=Assembly
**  
*Instance, name=Part-1-1, part=Part-1
*End Instance
**  
*Nset, nset=Set-1, instance=Part-1-1, generate
  21,  105,   21
*Elset, elset=Set-1, instance=Part-1-1, generate
  39,  159,   40
*Nset, nset=Set-2, instance=Part-1-1
 1,
*Nset, nset=Set-3, instance=Part-1-1
 85,
*End Assembly
** 
** MATERIALS
** 
*Material, name=Material-1
*Elastic
10000.,0.
** 
** BOUNDARY CONDITIONS
** 
** Name: BC-1 Type: Symmetry/Antisymmetry/Encastre
*Boundary
Set-1, ENCASTRE
** ----------------------------------------------------------------
** 
** STEP: Step-1
** 
*Step, name=Step-1, nlgeom=NO
*Static
1., 1., 1e-05, 1.
** 
** LOADS
** 
** Name: Load-1   Type: Concentrated force
*Cload
Set-2, 1, -1.
** Name: Load-2   Type: Concentrated force
*Cload
Set-3, 1, 1.
** 
** OUTPUT REQUESTS
** 
*Restart, write, frequency=0
** 
** FIELD OUTPUT: F-Output-1
** 
*Output, field, variable=PRESELECT
** 
** HISTORY OUTPUT: H-Output-1
** 
*Output, history, variable=PRESELECT
*End Step
